# WEL package for MODFLOW-2005 generated by Flopy 3.9.3
         1        53 
         1         0 # stress period 1
         1        13        13           -10.0
