# Name file for MODPATH 7, generated by Flopy version 3.9.3.
MPBAS      recharge_tutorial_mp.mpbas
DIS        recharge_tutorial.dis
HEAD       ../recharge/recharge_tutorial.hds
BUDGET     ../recharge/recharge_tutorial.cbc
